Cases/test/data_old/branch_specific/scenario_results_case118.csv
line_id,y_cos_f_w1_vm_from,y_cos_f_w2_vm_to,y_cos_f_w3_theta_i,y_cos_f_w4_theta_j,y_cos_f_bias,y_sin_f_w1_vm_from,y_sin_f_w2_vm_to,y_sin_f_w3_theta_i,y_sin_f_w4_theta_j,y_sin_f_bias
1_2,0.0028586344940186303,0.2275677559644464,0.28006951863988566,0.29498066334150375,0.953647101079981,0.0022894167448163916,0.03984543667579227,0.04926155377006748,0.05142432922348071,-0.024887166163256542
1_3,-1.1110207495854794,0.5408162054638717,0.35760385545471435,0.5265645843905333,1.8700990207161001,0.023584158861958776,-0.10287483964907135,-0.09149082374827092,-0.12366025107247389,0.02964103768170819
2_12,5.83124168003765,-0.46392997539354985,-2.013551227218058,-5.979257181156832,-6.417100069795185,0.5513113512180431,-0.04391159780625846,0.21933966458508103,-0.15555707932649546,-0.5424606151903514
3_5,0.8076788813602531,0.015003023227048686,-3.143518985168195,4.878161659953849,0.327177314847126,0.16751534835626225,0.003107548025576509,0.1801721888680117,0.17368228428126417,-0.1745051120707161
3_12,-1.3922785393892196,0.07820670753727255,2.880532966661109,-5.080273835400266,2.048068872755821,0.4196283810067024,-0.024797574738234546,0.35636168036821136,0.3471481091021647,-0.2782555815357057
4_5,0.0001464081350305759,0.00012610620176808844,0.006720179321364922,0.005421617560883257,1.1225857446607421,0.0031791424604360186,0.002528996267932108,0.13473936190615574,0.10875799131311983,0.026398379776984355
4_11,0.5280311040924947,-0.48787117736101515,0.12005945745223856,0.1259790222452486,1.09593668164083,0.04295918482721056,0.011723933046355134,0.24457874297835425,0.16923253364994706,0.05456200901798255
5_6,0.007037558159949692,1.0232115738269791,0.18648703399020297,-0.01397011545435466,-0.001499636847099417,0.029938035462944823,0.1526383925153782,1.2129885009541173,-0.05480245080546615,0.03129251878832326
5_11,0.003978822599815746,-0.9638898761599539,0.2888653973642833,0.13788316596349962,2.2322738931457793,0.0024237673500526746,-0.017503309306030473,0.10922730283133165,0.08741495514525113,0.09918329913141635
6_7,1.041579031888606,-0.25907310037595566,-0.06861497041380978,0.32714539501447193,0.29311404710353717,-0.13750737144445258,0.634320883543401,0.1679527237448475,-1.1023580928688244,-0.7401854831952653
7_12,13.118250811403533,6.222856477785405,9.819008949789794,-1.7802101500953285,-18.556969707402274,0.6306799073651415,0.2989529929806095,0.2879377738049066,-0.26910641827995924,-1.0198607393446455
8_5,-0.29136318018164276,-0.10775732785293975,-7.238584192120165,4.388839823281863,1.5816304608742102,-0.008965830563599453,-0.003885351180294927,0.05566178933690452,-0.475754883078199,0.01941821362921093
8_9,0.002188717096610969,-0.0014213751779176126,0.022183248215405623,0.022959145247929955,1.0978288824303952,-0.001985976116212467,0.0635957723531994,-0.016914412805334535,-0.021523329794776617,-0.1906438753368896
8_30,-0.001559129413719846,0.0005634536690470352,-0.012304494383671438,0.012330828100065767,1.0744276917933158,0.1346491810831021,-0.048660789666208314,1.0642959068537048,-1.0632535705067045,-0.09376412189714789
9_10,0.0009402770878344999,0.0009526753364801502,-0.02260687652443728,-0.023528020832902015,1.1099037091041433,0.06341466621201358,-0.061617973523141086,-0.021800484768766833,-0.02268758096644024,-0.12983711659306255
11_12,0.006253797278749043,-0.0074988064313162165,0.08448716893641581,0.04998246323941363,1.128020360041553,0.029847395159454893,-0.03141890236553001,0.3539899832571291,0.20896410280756006,0.12658716245344404
11_13,-0.19905462740340862,0.1562094996486615,0.3154632313888502,0.34535842188970267,1.2769355539884337,0.04778275013752229,-0.03736847022682985,-0.07561156850099855,-0.08276789540850146,-0.025910638911716587
12_14,-0.023710495069503082,-0.9738050448623866,0.025747596746585506,0.23537658405788353,2.256497807100141,-0.030785515220725757,-0.005288096596427427,0.1891308468746204,0.14685247781266972,0.12351924042194108
12_16,0.027373379520154117,0.6985333927420234,-4.314278465490449,-3.686000648068857,-1.4226371086320335,-0.04346398558153752,-0.6986250896844134,0.30288860319911254,-0.3251427783081866,0.8117239413702105
12_117,0.04774865905533643,-0.644627195549165,-0.7533304651200419,2.0854494610348073,2.0586446656067654,-0.022136244628104706,-0.1506659241306585,0.29610972461621055,-0.919251066192206,0.056749716133827045
13_15,-0.11012310309774925,-0.9702370349019246,0.6513450918502979,-0.4213416147871012,2.323444609052223,0.4755606407640549,-0.5805123028515748,0.8762270997367341,-0.517469785808334,0.20860178895703846
14_15,0.5265435132752716,-0.47654330628788033,0.02857443222468642,-0.14661103988214164,1.0181134832803393,0.25623530587693355,0.1627466109719225,0.7648973161933933,-1.2381675235773117,-0.5665266449047863
15_17,-0.48928279242811445,-0.4967080756186708,-0.04142631240305886,-0.11342667439753568,2.176020386599381,0.0167301596184333,-0.0009424971988956517,-0.10148765737941008,-0.12558675883103873,-0.10002931281638236
15_19,-0.998474035429652,0.24217101878369873,0.08469124001018152,0.18311492926996742,1.9907807492347183,0.0021500811763981997,-0.2616971204061738,-0.09169137000931546,-0.1974112517397182,0.22163793242017374
15_33,0.024692575840156772,0.16488639143245104,0.08969352436756706,0.20022628132984016,0.9560451809434446,-0.041471612113450906,-0.2739064621201628,-0.14899736529556643,-0.3325556843487777,0.2443184907841621
16_17,0.3245032757829762,-0.9720480168196586,0.28521226618768636,0.06315479820768394,1.9200048679609056,-0.0533257723795386,0.00046042387211807953,-0.0269920692291074,-0.030271267912271554,0.01636319849864121
17_18,1.0055239323616572,0.06909984905127098,-0.0417689309200604,-0.1534310230808017,-0.13477488606696975,0.010023518050120216,-0.01795437785535102,0.04477640033696091,0.03983089914297719,0.056527239674568935
17_31,1.013429739438776,-0.0530114833529749,-0.6867087733463588,-0.1403860292748962,-0.14267694071280546,-0.4270921470148349,-0.3742009684490223,0.625483662587802,0.06487863987811779,1.042032223405412
17_113,-0.9894157785775555,0.0007792670111402954,-0.08115516126545419,0.06205220681394508,2.2258354443240878,0.019976854874118155,-0.003035076918139099,-0.162621490256192,-0.24109288679868324,-0.09600092323436038
18_19,-0.04216235624594472,0.23595662053680533,0.09353817733817833,0.17799931818236414,0.9483605998209255,0.03974438347628334,-0.2224247230320448,-0.08817384797270963,-0.1677912192356966,0.15020484856517424
19_20,1.359347239064898,-0.1542670597159951,0.9831422428745898,-7.98637912494713,-1.7874757837432256,0.3714413709068642,-0.044520323156228524,0.27979906934419907,-0.0011408817774447855,-0.3015484288646078
19_34,3.019144045310489,0.12831015979444227,2.199932806827145,-7.957814483192583,-3.6205051408971913,0.16126959286874262,0.007056324202357712,0.12099934789299828,0.0034214027997310353,-0.16063473271366802
20_21,3.7987754023757856,-1.6869847691149755,-3.8831898484061695,-1.586003692144882,-2.395451696595392,-0.262495012658764,0.0344523040652408,0.2785199295334692,0.11982483337620609,0.3112607131845897
21_22,0.9703712526607936,0.009146680682424524,-0.12207203088999953,0.11246932448034525,0.019030219639030177,0.02933208508362717,0.2854154411938402,-0.0334377020256387,-0.2674316038026686,-0.42353585645288266
22_23,-1.3109899744006472,-0.18498398602351632,-8.013091469634269,2.4209651225677864,1.5722079453022944,0.2460728949593684,0.03370894398309546,-0.00018780839536175487,-0.44971426920173446,-0.4192630925384556
23_24,0.002734225249986004,0.0023729544192038197,-0.03657121437030257,-0.034913932373129605,1.0835818578501437,-0.00190972233024303,-0.0016573923611544498,0.025543200849099463,0.024385670598975704,0.019235768369103526
23_25,0.0012467684882158415,0.00010789529337301678,-0.016675725382338424,-0.015917764620642972,1.1015762851364812,-0.0021208098947840537,-0.00012947435419776492,0.028366285989296063,0.027077136048030026,-0.11790858940287605
23_32,-0.004535274736145345,0.028164831521373664,0.06066087810601489,0.1086071786530086,1.0885924504287576,0.014238422490066016,-0.08842303805032259,-0.19044385651175127,-0.34097050015319186,0.08822137839979748
24_70,-0.0022138050538868387,0.9961836486244361,0.024574090333989537,0.06248488709370553,0.024008717476033947,-0.07346320997445455,-0.000257379667851082,1.0798570184133496,0.009691498485299165,0.203178002323517
24_72,-0.0028202579636877646,0.005161564305418925,0.036042799450826744,0.0004541140895800329,1.0889654760227785,-0.003312219510445788,0.00607744589194413,0.04244232939145234,0.0013436027406240544,0.015279217443492962
25_27,0.018021575135994783,0.04576997228610623,0.08708142818422313,0.22147744378469794,1.0537564985612813,0.020794125237651673,-0.16686702872103854,-0.19900106993309058,-0.4990485079196898,0.2748762233621451
26_25,0.0026216465594262536,0.0027795245360049806,-0.028484082370941573,-0.04003256248245564,1.0834637197584964,0.013553814715462964,0.014592503813606786,-0.1484348645079438,-0.20861537180606488,0.007281722650312284
26_30,-0.989364063194773,-0.006664740310120243,-0.33564995612547643,-0.16961103094397414,2.086780359790574,-0.013667618879990129,0.012746900147693432,0.6416378989014746,0.2054102386998901,0.17176958239839113
27_28,-0.46346425773247135,-0.5057573350913371,0.3323977904486564,0.09882881324845058,2.201145439733824,0.03119980156834473,-0.016462883004668236,0.2921377053324097,0.17253525681924511,0.097680773505696
27_32,-0.9506848597312947,0.04700979618633214,0.37235392256636957,0.1815601541659586,2.1646207295358355,0.028396336742089107,0.03252327307777454,0.17108579815326044,0.1254196337175775,-0.003133290656231892
27_115,-0.9356721316056344,0.017301049583382702,0.2802947830014518,0.2442176013709499,2.172142152278435,0.03573833322889819,0.016852823748032215,0.15631513833992694,0.11939537446500403,0.008993540521297375
28_29,-0.48624679936602816,-0.5169048389910633,0.026103340257256524,0.02564897574961475,2.156503171344095,0.07164785506427074,-0.1622268264550022,0.6690009737845269,0.19470654168760068,0.2898767287279059
29_31,-0.3179766523500461,0.6758057548327006,-0.20971409557710674,0.04970493106088114,0.652057974001915,-0.3660757476047978,-0.3687908053955091,0.4309590816087383,0.025365266911760366,0.8858865966879805
30_17,-0.0026728115751646214,0.993182167588483,0.023222966746298295,0.043135335446369966,-0.01139195856594477,-0.014181786819656761,0.008286460938436255,-0.22049022344393304,-0.45845595260880434,-0.03536503168536559
30_38,0.010098840105707663,-0.009398670203506168,0.15094050464520115,0.1737338543238015,1.090447611866659,-0.0026471695864202782,-0.013099541827810274,-0.040537870892413286,-0.04553996993463989,0.03495037166786979
31_32,0.9860210777368213,0.05833941693278391,0.1325988063750719,0.22448748030849608,0.02438957070794645,-0.00835177186950864,-0.26190912061580257,-0.04169372455408489,-1.009819152619886,0.06558242752245094
32_113,0.02831279289270998,0.0004899764042835009,0.10917773655172261,0.0389210323179064,1.095048401171344,0.15359790166814113,0.002658139302965919,0.5922930777888583,0.21114797531428284,-0.01272800926669631
32_114,0.047104422465620244,0.0407949945627348,0.21247206868071677,-0.006072165531848223,1.0223199981576043,-0.01477230718213881,-0.013690284445623518,-0.07143962358236912,0.032362138119213776,0.029442058988150693
33_37,0.7995065392920816,4.2683032372175246e-07,-3.1799015260696812,4.803154385686819,0.527477115955435,0.17315403189092082,9.196949917955184e-08,0.17418101419728682,0.17404967224391388,-0.13091768422475805
34_36,-0.0127075145987883,-0.017086291833902117,-0.136448607146094,-0.1669884410394267,1.0779831025161875,-0.004741434521920135,-0.010234671162192618,-0.05045811595495375,-0.06234118093278214,-0.0025382719737857846
34_37,-71.4058930539405,-0.00051760769173466,-18.70460366180028,26.247122761165343,82.23193735062651,0.30027000308109447,2.1780775621898824e-06,0.11129075693122481,-0.07785840858983215,-0.334620752124128
34_43,0.028155560567496934,0.0453916033621864,0.11898736885547492,0.11813068831248956,1.0719851402205531,0.401213499795958,0.6468027848810805,1.6931903473587755,1.6855948276052495,-0.36427659084162134
35_36,0.49770264332863545,0.4967739132815113,-0.0376624677700354,0.03025747185564559,0.004445203285383448,-0.004133096501229505,-0.002943909787610069,-0.05604457996064756,-0.0691098325915001,-0.020818663744216065
35_37,1.0476130980330773,2.414572780524084e-07,0.20118357297865286,0.18549014305417078,0.039123817367724856,0.01581277339227624,2.5492763536818743e-08,0.03307562448551611,0.031429939535416646,-0.017432256413738544
37_39,-0.0007663783899407028,0.9854490393843688,0.1160326617255957,-0.0088651157049991,0.057280294672020116,5.969679171241582e-06,0.01246767549604701,-0.09955478719445825,-0.12058730611065459,-0.03178935059212531
37_40,0.0005739500827308397,-0.957591434432431,-0.12228158938753422,-0.46110972871558126,2.00287495116224,2.6462861182491304e-05,0.005210197028848229,-0.10718383744877365,-0.14953893986392502,-0.028970848142647
38_37,-0.017519699118040077,1.0160080262029592e-07,0.06832723718448203,0.1396226416936784,1.1323773099906036,0.05942418471662786,-3.433695289564791e-07,-0.23091842047825475,-0.4718411891829738,-0.1313299342956661
38_65,-0.05068397606380731,0.05068630323918247,0.18930563497231065,-0.4399755686785841,1.0400078883402692,-0.06835387930263148,0.19292437205640633,0.4879386809675751,-1.1340594661021275,-0.2137396500788262
39_40,0.5284256555389416,-0.44456656872732836,-0.14831166563647463,-0.21611082887720565,0.9051963090931234,0.005473182895556452,0.0037298834540420924,-0.016258313016714678,-0.017129446522020975,-0.014042950981066624
40_41,-0.033883869097129926,0.028527425977791013,0.04412008098312124,0.10098282584341103,1.1216822553590677,0.13797766717243798,-0.12272001328527748,-0.18474009738815977,-0.42181816319436916,-0.16393693524089056
40_42,-0.0032217186470159392,0.02361328264288313,0.02696407837627496,0.06909436606967469,1.0852067522978868,0.010586901859733544,-0.1822136363831912,-0.2098640324558806,-0.5331792478983807,-0.0075707663406098455
41_42,0.0008565199832658021,0.06618416672668308,0.16013240829294664,0.19369063221113172,1.0901797827496507,-0.015637638253574865,-0.03584596120368601,-0.0867350968071775,-0.10489585805080637,-0.01679681086344099
42_49,0.07556831116134158,0.00014937637085327138,0.22111445821313622,-0.21072650281063263,1.030517988375813,0.35328465006682297,0.0010279592897535217,1.0337176276960758,-0.9851538738293676,-0.385514008893166
43_44,0.02139520443018425,1.02470769056955,0.12309556000203856,-0.3250268201210754,-0.07998873604312684,0.04947558654376105,0.1504694781623675,0.0070740488693719,-1.0738802896392,-0.46282953658894954
44_45,0.9756634041885154,-0.002805532979121561,0.12016552255208379,0.11973596964291622,0.07065199671648659,0.040488060524537184,-0.15580295514611345,-0.12412337203162586,-0.19760543514724255,0.03246104658982479
45_46,0.09678875629838718,0.9721757049363702,0.0118985860443587,0.23402016210945048,-0.04985708598121841,0.03438404222451645,-0.029065900110311155,0.051525704494218796,0.03668553420418374,-0.03446307121557707
45_49,0.1610805847922484,-0.028255476556401822,0.21594071945497148,0.12640405812861882,0.988339036817926,0.16462233408471255,0.031956395068674745,0.22816888022620643,0.1291250284223293,-0.2395645593621055
46_47,0.0007306302379766066,0.007356243694288074,0.06737103561769733,0.029468856341686833,1.0893300187979735,0.005980542688578061,0.05879092330973483,0.5396256673872668,0.23602329367453045,0.0018204202222869004
46_48,-1.026261336297496,0.21307745712754517,0.19065120018050347,0.31820774490378906,2.0272133582751777,0.014415694913596958,0.005716343945619996,0.010464212813481557,0.008584840981408737,-0.04477645028665605
47_49,0.0047059894036248495,-0.0021950312975576314,-0.03670325754463009,-0.0574631381756466,1.0840411575954043,0.019475639120146826,-0.014446544695017256,-0.18059515588990588,-0.2823834328361371,-0.06598743778018384
47_69,-0.0011289157088282126,1.636618409736434e-11,0.018397065991953412,6.113200346942548e-34,1.1040578900777271,-0.19219772431836102,9.60461426230134e-10,1.0717222168671678,3.587645388060204e-32,0.20611445443219828
48_49,0.11728380419877621,-0.0020958670302609478,0.17584129510735164,0.11858139415273482,1.0073708227405842,0.12371506267266957,-0.016713311429869777,0.18549107583035174,0.12508459362759103,-0.09937819362479328
49_50,-0.5005456014228025,0.5003565203004113,-0.005149883147276435,-0.005732607866000272,1.0998529542280098,-0.02097483374872823,0.010344217886937401,-0.06856645476515152,-0.0785573015287051,0.028698458457036197
49_51,-0.9978966000516137,-0.0001474236058597051,-0.009170440617424891,-0.010825383436688374,2.166434831202424,-0.06236906905260061,8.427696544285304e-05,0.005996986895491836,0.005814307263353351,0.14753946938085816
49_54,6.559602610632645e-05,0.0048321989774536,-0.037923708344174675,-0.03720301449856399,1.0615857256836005,-2.5182441730538526e-07,-0.0009145807089618371,0.007177766274634431,0.007041365022685475,0.09561468472476357
49_66,-0.00011703817063364015,2.1740380306755833e-05,0.00785192354577796,0.006097350279036312,1.1094537002014535,-0.0022679771578664825,0.0004714940682788993,0.15499601960240514,0.12036162007274433,-0.0751397910120268
49_69,-3.82504430189029e-05,6.26101288446923e-11,0.10972711148483122,2.3387076110068673e-33,1.1179665426183123,-0.00021150763525445981,6.317399743623085e-10,1.1071532419035996,2.359770027572594e-32,-0.00011705613396503778
50_57,-0.49689679258485875,-0.5018272085577811,0.024960988005248208,0.020492445887603683,2.1476824225965303,-0.0027113647665086282,-0.028944117598668294,0.10441268169033452,0.08699394431124867,0.10418179728558959
51_52,0.0005467260896733564,0.005459633478677302,0.037957726671699436,0.03963040233388276,1.0470378274389833,-0.0003044658228604988,-0.0030404106023097085,-0.021138245829675818,-0.022069740743645698,0.01049865426628885
51_58,0.0001516316335986919,0.9999766707295926,0.014342880659787251,0.014459814677244089,0.003646599410922491,0.00012400484349177343,-3.232399460256145e-06,0.008610723989649401,0.008470109600239473,0.014165110853592452
52_53,0.03892090755861757,0.23447860735832265,0.2869269605772554,-0.00045146467789244915,0.8054884362314876,-0.037112136128196305,-0.22350879383650413,-0.2735303079652397,-0.005405940230213263,0.22980308379075956
53_54,0.18345875841161774,-0.028479219541409917,-0.0016671554464038618,0.22018527962471474,0.929760136881369,0.26857297032058003,-0.04169058413497488,-0.0016434357910597996,0.3223259122930235,-0.18719419008999072
54_55,0.0088584135569401,-1.0001807358252979,-0.08653934666442838,-0.0932869961871366,2.0808323685667167,0.0048091068123194206,-0.0002442388884344956,-0.03708393175807071,-0.03989239836643235,-0.018173674401652382
54_56,0.0065033294883718035,0.00639013050786928,-0.05013620515577568,-0.04992605968826538,1.0292820372993539,0.00018244108090716919,-5.7094878232181374e-05,-0.0014005330077646433,-0.0014243603869958845,-0.00037532759026108866
54_59,0.04503272133475178,0.0008430927246324271,-0.3421696768051997,0.0961989656003926,0.9770788055409807,-0.16485231769909858,-0.033643049681783666,1.2531217625210038,-0.3522990935602237,0.3540772297281061
55_56,0.49610769807731847,-0.49412797869342034,-0.005350990020626667,-0.06701121245509889,1.045760951978216,-0.00045271813521081256,-0.005112579578362595,0.038595857090213424,0.03566238809431349,0.019019823563544522
55_59,-0.07905551023335694,0.07902520832785415,-0.2549548010331993,0.06656567671950586,1.0350913279466547,0.3192337377887393,-0.35115199356896215,1.0811396543437446,-0.2822756932228355,0.16457120376872486
56_57,0.007597865251015606,0.0016502978944195777,-0.04806198655502373,-0.04714535503096162,1.034939059941594,-0.002602392446210855,-0.0005873312020855811,0.016579270605250593,0.016260849331775115,-0.007438510524440179
56_58,0.0022169602337788336,0.0013477735845227351,-0.02920393148369689,-0.028863062000214552,1.0397552502758969,0.00047962342219868767,0.0006710577107796483,0.006606045525899632,0.006409324962817871,-0.00207428046456702
56_59,0.07991585367870908,0.10996784314706803,-0.2391012627276899,0.0647877998870795,0.8352928835976475,-0.3220201808879519,-0.4453308965714986,0.9661309065291748,-0.26181811915662345,0.9295695697705757
59_60,-0.016567412522699665,0.981985740552724,0.23517538833833718,-0.3753060054104722,0.03562185422021247,0.4565874576310702,0.48585403940523303,0.22984633257631498,-0.36655790004409666,-1.088123241231826
59_61,0.5197583123706074,0.476631827822989,0.035358980905015464,-0.07993834962713706,0.00024954477587968427,0.4066669998461161,-0.46529560912954065,0.7126229453910353,-0.9843535656926081,0.017939390011192755
60_61,0.23943755873081635,0.22178751496234173,-0.25574107149446396,-0.24187336655616384,0.5444304693130796,-0.018265121950553846,-0.016945477260895105,0.019523630634596605,0.018465817136310087,0.02724154752963602
60_62,-0.35935877021141216,0.6408064139134158,-0.1882033874053657,-0.3068323090167989,0.7383764725775175,0.10481591572070564,0.10938067389475903,-0.1434611541995761,-0.2338707681999075,-0.2741749874876917
61_62,-0.44352990729570535,-0.5777511737458818,-0.3585146337128525,-0.7069896993013973,2.111949130762791,0.027260839042765106,-0.03908003069553778,-0.19229948825455503,-0.34865163689275047,-0.026217026880282008
62_66,0.015112564003677553,0.01640106309378346,-0.08603932675017911,-0.09300745800042015,1.0580058303473119,0.0062083119815307675,0.006729784041189819,-0.03532392656556481,-0.038184791025269726,-0.09941428255805243
62_67,-0.4943229991453978,-0.5059177475530094,-0.38642271110898274,-0.34878401694774797,2.123685821909003,0.006793886623797846,0.008731717287260347,0.06701929314130821,0.06047063891173446,-0.0356765234517277
63_59,-0.1360871604792877,0.9969932500627132,-0.05509958634060312,-0.07079718169598742,0.0936137218124683,-0.5048493402065253,0.000982166314305144,0.026513131330249462,-0.2631190803102751,0.5328820266281509
63_64,0.13758165406555123,0.9950680471456911,-0.07519809320088837,-0.0111176984017127,-0.15274622656643522,0.25427156805226225,0.02202911533481544,-0.025424499338070287,-0.13418985468493638,-0.3245838515358208
64_61,-0.020411713793940023,0.009095559106850781,-0.46935712708517663,-0.6510220185453364,0.9915420576142274,-0.009052639445431332,0.004110412543961536,-0.20937376064804988,-0.2904198861115386,-0.026365539489304486
64_65,-0.20295569553607373,-0.7523109199072489,-0.7073637652428735,-0.8393331330329711,1.949229380184595,0.05093046597045427,-0.014714470977174994,-0.07977567656545606,-0.10022553738493716,-0.09940304456331087
65_66,0.49995188138049773,-0.500042960000714,0.00015138538073464214,-0.00739985802438653,1.122539475671013,0.047104692324462016,0.05421569341175741,-0.21885592601094617,-0.49833406995355234,-0.1301600186852008
65_68,-1.0003633567054178,0.22785086100890647,-0.5553528185789788,-0.37554832685411593,1.7996563706988717,0.007870569993429472,-0.08395674939737621,0.20470565380369582,0.13844553664276535,0.0980954543820586
66_67,0.01556675003777952,0.0142697028008547,-0.09554766668755812,-0.07972633138209967,1.0676262579725566,-0.01681209004108819,-0.015207486881292944,0.10253752187477498,0.08556017168397144,0.09515863828652901
68_69,0.12385540710448534,-5.061976882015673e-10,-0.2042666827468815,-1.8908294790905383e-32,0.940084293591797,-0.48128759459514536,1.967024883609889e-09,0.7937563865277223,7.347541726727897e-32,0.48549205536068696
68_81,0.0925481726234812,0.007440535921331065,-0.15273992064417743,0.24950521680059423,0.9250727833839898,-0.4027308590526151,-0.031154484450153175,0.6646615601585577,-1.0857829682833353,0.4317813522017377
68_116,0.09200035579055232,0.09881951067865828,-0.15173021451550675,-0.23145477528676084,0.8175956851174442,0.08024372999892992,0.08619147247188075,-0.1323407747898335,-0.20187742031516256,-0.1769215397062701
69_70,-0.011117110619628168,0.4184724290357752,2.645743771434103e-29,-6.697229071278749,-0.09795501586834265,-0.001571567274132074,0.059163969035924566,3.740150378617579e-30,-0.946752026458362,-0.04498084636949508
69_75,0.002862977455135751,-0.0009384600325202941,4.17837502905317e-31,2.501615878343668,1.3505444084316305,-0.0005899990885457063,-0.06241845154760936,-8.836922404285948e-32,-0.5290710110661129,0.12677786345191575
69_77,8.901753409940039e-05,-0.02062190877415268,-5.3368987301408015e-33,0.34361674775935125,1.1532276118979656,-0.0002552648491915832,0.003815391571953597,1.6914358945631863e-32,-1.0928351289063047,-0.0027929740569835465
70_71,0.003122549102112848,0.6190813630104156,-0.050142704175188485,-0.5050871404452059,0.343182453975008,-0.001228025374024222,0.5223517470462272,-0.04254950152170267,-0.42616867632518973,-0.6126979376821596
70_74,0.4866864948743961,0.4770578379050944,0.022385755825425527,0.16117994323319004,0.060729674519903076,-0.19687655166769846,-0.18528817176208223,-0.009119970838739277,-0.06367237896950781,0.41004478139948525
70_75,0.46902397025294273,0.4702116870265927,0.021626912688560273,0.18113263425326426,0.08680104935652122,-0.19488504634125223,-0.19354610594843358,-0.009001237444598987,-0.07490945224348439,0.40082899576701736
71_72,-40.53814137829368,55.70089618997892,35.42765353580855,-16.257011402268446,-13.259980249445343,2.2041036038589645,-3.0193638094516997,-1.9199814814107483,-0.094933708836352,0.6575534901327341
71_73,0.713084643206223,-0.00046200326306311545,-0.582081072872272,0.10114287442861897,0.2532643756253664,-0.609323974086244,-0.0015393502328033826,0.49738214111729084,-0.08642554243015274,0.7095660647198404
74_75,0.5006404586857505,0.49894425072657056,0.019063466762867118,-0.017657822427657496,0.0007592737005162054,-0.006473891324862717,-0.008388809318854294,-0.012659094430918219,-0.01771620172050251,-0.00412719012319827
75_77,-0.5233286064963096,-0.47701465698588885,-0.004349498206430512,0.01664625141524445,2.144757262400771,0.3881601737236774,-0.3695235358709116,0.07311121892439991,-0.8119263166093981,-0.093716974836665
75_118,-0.0007166368077607954,1.0341243017280746,0.35568964326517505,-0.3628188676240441,-0.028870505845978833,0.00800713998821867,0.5843421224336613,0.2009865266963897,-0.20501533490425944,-0.597656511903349
76_77,-0.12741249867104976,-1.0352273225699449,0.1597939397888032,0.5676692288820745,2.383390667980909,0.1589977080863787,0.08025195001364532,-0.19587237223023374,-0.7704365454349875,-0.38681718929594067
76_118,0.2613704920417773,0.3409161089126714,-0.31963947597890396,-0.11967114634968366,0.3541049200799451,-0.1783212296157234,-0.2325915954100832,0.21807551397643246,0.08164619425817901,0.45805810257238416
77_78,-0.013935302422525608,0.18213354695738643,0.21210766133811748,0.26419058496776104,0.9425179429164025,0.008848590012695695,-0.059086449360556466,-0.0685387385565269,-0.08570836666442089,0.04889387282861018
77_80,-1.0162572343612646,7.775863952730333e-09,0.3664945060082481,0.4405410412734614,2.2618076361460386,-0.03266357749070605,5.927303023400832e-10,0.03068772389107992,0.03287785616013438,-0.0025020432864029593
77_82,0.036148125310079854,-0.03870918837256332,0.1413215535923961,0.1145761534766026,1.1072290672015719,0.03485870396425042,-0.037568389922427774,0.13672544780217116,0.11086314210297182,0.03207912893996555
78_79,0.16043734183631825,0.1548831612872588,0.2326789947934308,0.2319439922811927,0.7777478646721421,1.1285153482274902e-05,1.0894472738957991e-05,1.6366627234601205e-05,1.6314927199774353e-05,-0.005482485539219453
79_80,0.1115063711174499,2.450591234788406e-09,0.16698544029458162,0.13268332123958387,0.9996880829842469,0.06908734590838628,1.5183423388387096e-09,0.1034611812731708,0.08220820405945521,-0.10685390191589333
80_96,-0.004039735087831148,0.996864577610636,0.19578255795140712,0.09442445784091996,0.04430099918450492,-0.0007638480234491429,-0.006611333070102227,0.39297179215231287,0.2061432102928756,0.07659444769568487
80_97,-0.000550094521621497,1.001079173641914,0.08894437218690462,0.07966227971145974,0.02316562205019168,-2.161550437934645e-05,-0.013207163549969717,0.16986447012341954,0.12819963944868137,0.054423701934015
80_98,0.00028932317941443575,1.0069977089388815,0.36346252458454764,0.01628018600170398,0.010722081136995909,0.0001608318953676413,0.0011554206984896176,0.9219699538770276,0.11658820271503255,0.06066242333986622
80_99,3.912652922781479e-05,0.0012306134413505934,-0.09148176734157423,-0.049480251350203355,1.1088516625262066,-0.00024382326747041105,0.026727912469059215,0.39618619280353073,0.21401576382193646,0.037989370683934605
81_80,-0.0004085490576455006,9.362698166904375e-10,0.01412112969079183,0.05059946522011627,1.0735786837639263,0.006309483539374661,-1.336266979096178e-08,-0.20155490374162668,-0.7221602997341999,-0.03739529386181092
82_83,0.9979992977240058,0.003970802302980497,-0.03374432640886382,0.09434057023213471,0.004195877218239108,0.0003177633483016362,-0.006466751837604159,-0.04755197685496204,-0.05218697617019736,-0.00915580750502646
82_96,0.0607928149142605,0.07323194242954768,-0.2025161718641944,-0.12800624575091785,0.906310337297124,-0.06594260894905879,-0.08769819759923035,0.231921789470241,0.14674489090847412,0.18324738576044808
83_84,0.008586345014550925,-0.0037918190105112083,0.06797889835346034,0.07291868077299957,1.0874090591107641,-0.003888456914694173,0.0018318763987734028,-0.030775609369999075,-0.03301957400099671,-0.025486499558025136
83_85,0.009854818202090984,0.005948819114275727,0.0805384968470398,0.08775203774446635,1.0833613854224489,-0.006273572474812625,-0.0039005958703613435,-0.05126229233403304,-0.05585950046766559,-0.03570920485201281
84_85,0.017152779862500495,0.018378928211378452,0.09055003783027751,0.0940653468680216,1.0641469921764317,-0.003969806790458427,-0.004241608379452889,-0.020926201714052198,-0.02173869030790194,-0.010025879959080407
85_86,0.0014911058458949578,0.018220738748352314,0.09857633288273046,0.10022368895293005,1.0842391456974343,-0.00014672515567311709,-0.0016224722639425172,-0.008777525894333962,-0.00892444774231688,0.022668455523782077
85_88,-0.9959493443743528,0.06374673779683745,0.2169786068617378,0.22452569230410213,2.1364031775522148,-0.0009547394471367127,-0.018330892339218925,-0.05803452872098778,-0.06449057390325706,-0.019999633352983555
85_89,-0.0010482216184751758,-2.8228862136584584e-11,0.07857404914195112,0.06358064475918176,1.1090509009246114,-0.06411743985129406,-4.419770187121273e-11,0.12406115889750707,0.09763449295940009,-0.03351789251500667
86_87,0.02015439062992702,-1.0025243290533896,0.11847617581032371,0.08485853394560071,2.212885872597689,-1.614762829243294e-05,2.6591228215747552e-06,-8.888313150577832e-05,-8.852785012950897e-05,-0.0058060735582020915
88_89,0.03591506656218585,-4.251627030021424e-11,0.14218519526265228,0.010312540436735948,1.0684140216947942,0.18122171443682725,-2.3351512058823425e-10,0.9014840631967147,-0.9077172051761329,-0.21034311122075078
89_90,-5.3324865253358604e-11,-0.991315104398041,0.1521120447902699,0.24335402132087447,2.175146787577765,8.813469605302699e-11,-0.1371683490623914,-0.19825121624200973,-0.3756337289675178,0.2511928518984885
89_92,-2.2520154221963034e-08,-34.63768650766077,-33.26059322033899,21.969753385955144,41.480187108268694,-1.849010480847949e-09,-2.84391682018453,-2.0889830508474576,1.8038199859510025,3.3517136288076843
90_91,0.006065125627314538,-0.006221313287433479,0.06020648662474657,0.03746311982656525,1.0931132574027693,0.028540462689355117,-0.03149435413868879,0.2941847333660378,0.18308170892785025,0.013134463928840587
91_92,-1.0042616882870212,0.13301393148641766,-0.21441476918019053,-0.08440156616259706,2.043135809885173,0.023721907691810817,-0.27637300271594617,0.4756669513549159,0.17529728372757833,0.2714099663711572
92_93,0.5959497557271382,0.0010122165553286822,-0.37770596641946574,-0.36569152535366833,0.41659018901179257,0.0049633518084942945,2.736280228524124e-06,-0.003145711702792637,-0.003045652350851906,0.02669055798310932
92_94,-0.15834474129825593,0.9980058422706855,0.09832609050108615,0.07176205780199431,0.19287986558320314,-0.08036630133801094,-3.7547381326732965e-05,0.05076470796823196,0.036800081525469694,0.14354462368832277
92_100,0.8382925555861153,-1.0015454418380831,-0.5329348028711511,-0.426353565553277,1.283520874587706,-0.06547529492387645,0.00010874475631859198,0.0415610260356403,0.03324940023937932,0.11890189393613133
92_102,-6.843996480240983,-15.62041524363755,7.92585588062966,-63.71594736201954,24.42825994526047,-0.1053267751204092,-0.18370281982540337,0.09535598929456199,-0.4825600165276491,0.32297048563494507
93_94,-0.4098751899386271,0.41091232574724046,-1.211584090440401,-0.9063577845918278,0.9834922683747406,0.0295671090527814,-0.04526336197953397,0.11046601487708275,0.0826372160043151,0.045567048880573155
94_95,-0.010785406751206317,0.818035449073352,-0.18360696665235915,-0.12685018727263456,0.19566727620493918,0.00016829871638030305,-0.011244184910085116,0.002523744418237261,0.0017423567569405654,0.02570775543712792
94_96,0.3669651297088292,0.3669147633027545,-0.13294771177490672,-0.27902967210729385,0.2594695286445311,0.16228601938206177,0.16261220004758437,-0.05885764248223613,-0.12353000149317875,-0.3477739006966987
94_100,0.5054732928602771,0.49332171316930334,-0.0052631659815458864,-0.005974041654953355,0.000757697525206158,0.02313955696344391,-0.02324221100777999,-0.02259279809465438,-0.02495704807665637,-0.009841493137617889
95_96,0.5849576120209315,0.00850237474287091,-0.1357215411406104,-0.2757492792561357,0.40944834532218455,0.22315174678720276,0.003621969523659785,-0.05175189153514781,-0.10519342518184663,-0.25059990074431215
96_97,0.15398920496973045,0.155445430187841,-0.18949657685348675,-0.269308115571371,0.7186730880545951,0.08652298322527424,0.07932231828117382,-0.10155882475242246,-0.14433279292148568,-0.20902441358168727
98_100,0.49985400791954304,0.4998317110789416,-0.01577975561874838,-0.00010351046086526372,-0.0005639600047271376,0.15880997645893546,-0.15779026609505653,-0.09250547129090989,-0.1951164673988684,-0.021129214271270708
99_100,-0.40141718851130326,0.5986870880439494,-0.20524769385273356,-0.1055076977230214,0.8714574877275432,-0.15356310691266528,-0.1534484008492645,0.3191658063052167,0.16392270880498458,0.35140604732037556
100_101,0.00043984896827298225,0.513103052598082,-0.2909207084859692,-0.28106189097418166,0.5185887745297763,-7.0247727600655785e-06,-0.0149012428796475,0.008448751659726353,0.00816243954563024,0.01338000010357134
100_103,0.9952653687347655,0.00014115740101744434,0.0001556625414703139,0.0626008279513004,0.0022990372401494596,0.03815412181733971,0.08635413356949724,-0.08507091103718623,-0.11378344349683911,-0.11234620908452089
100_104,0.00011636233038653243,0.1920101798978915,-0.2556427568208561,-0.3637193731068512,0.8355688011144197,0.06214452503443088,0.09688038760577015,-0.12896528759135634,-0.1835006101669025,-0.12309348834747263
100_106,0.3664468977964369,0.3415008239466475,-0.2602578164157186,-0.20036995348912862,0.27546800906906965,0.008424817971210412,-0.051999476593753445,0.016035243028870817,0.01620957395281402,0.14351828715599302
101_102,0.3832356773848694,0.524672418904474,-0.22464894204645852,0.07190703467403628,0.09103953087873451,-0.008844336779097755,-0.011921901818701707,0.005073990186503342,0.00043836861091294844,-0.002363427860063938
103_104,-5.29903388778218,-4.290596862763199,-16.049939774955778,7.918411835267262,11.23552440415004,0.22172377320808762,0.17677860317393118,0.5016586126733283,-0.32766190872605344,-0.39411706840843774
103_105,0.24782983830788174,0.21569762025662664,-0.011562235448519725,-0.3407780419380131,0.5398006393440298,0.051114679108669514,0.044475525972448776,-0.0010844693956533896,-0.0702508470701459,-0.06274016173491065
103_110,0.3263275721039929,0.42324100564066786,-0.011677568677790795,-0.29833293065833744,0.23174098573766888,-0.08115623751310741,-0.10523496361538805,0.0023774221643083904,0.0741811401340475,0.27253613607105986
104_105,0.11387261054503472,0.1356473634469707,-0.21565702428059616,-0.21655671873701882,0.7599227627293006,0.00196648671634719,0.002342518864275027,-0.0037242201746752472,-0.003739757161039731,0.004634169372634136
105_106,0.34309499587576775,-0.02989507001206665,-0.5502759320366993,-0.22947596114911512,0.6344775562228664,-0.18807564470892013,0.018095270364469923,0.3016536882643516,0.12558193142316915,0.24470996111795776
105_107,-0.09416546700546458,0.9994363817060574,0.15097082033302447,0.02446778937013204,0.13235263042493361,-0.38984589505030975,0.0002515314349730846,0.6227512599790233,0.1006882258182066,0.5416190747266292
105_108,0.21693220984041084,0.31546571675451446,-0.3500989080253528,0.005876120335148782,0.4607905523152509,-0.05949762695880635,-0.08652408802884382,0.09602379109713319,-0.0018191211122267764,0.17615721013981073
106_107,-0.16403228489763655,-0.12057154471073114,-2.2685726505964956,-0.8722558418220623,0.9364177221666123,0.05012517111335729,0.034763039978074214,0.8030935884442497,0.30840792427333497,0.08305947346850986
108_109,0.36758343965212903,0.3857955142435039,-3.714260699905214e-05,-0.3051282489364346,0.22422487261549873,-0.022361421947095936,-0.023469056509616913,-9.809583748121922e-05,0.018562287659464737,0.05389029959584734
109_110,0.32021285135026367,0.3234930991866346,-0.25203635689568565,-0.2261027611634882,0.31968431903588324,-0.028154327781115013,-0.028442739605934193,0.022159991939353432,0.019879811891274888,0.06618660465167663
110_111,0.3333376829932182,0.3348152602542562,-0.23298354961545362,-0.23794281292873698,0.3032964786496629,-0.0026565791380562904,-0.0026683548871743994,0.001856793482995768,0.0018963169936288713,-0.020123056332139403
110_112,0.16613826742261417,0.05716813023314115,-0.11612093455353396,-0.25310763055099966,0.7795339957925022,0.22918329136654864,0.07886190491426413,-0.16018571994519326,-0.3491551990975599,-0.38862536104870427
114_115,0.014802197209265788,0.011287334997657312,0.07645484341209527,0.08327164112413166,1.0762625685360196,0.0017448616224421433,0.0013273669059834321,0.009133294842355578,0.009652236264978667,0.0005275467816083082
